1
9
.tran 0.2 20{return}{return}
1
1
Net-(R1-Pad1)
V
